<routes >
    <vehicle depart="0.00" id="0">
        <route edges="G3G2 G2F2 F2E2 E2D2 D2C2 C2B2 B2A2 A2A3 A3A4"/>
        <param key="has.btsender.device" value="true"/>
    </vehicle>
    <vehicle depart="1.00" id="1">
        <route edges="C8C9 C9C8 C8C7 C7C6 C6C5 C5C4 C4C3 C3D3"/>
        <param key="has.btsender.device" value="true"/>
    </vehicle>
    <vehicle depart="2.00" id="2">
        <route edges="H2H3 H3H4 H4H5 H5H6 H6G6 G6G7"/>
        <param key="has.btsender.device" value="true"/>
    </vehicle>
    <vehicle depart="3.00" id="3">
        <route edges="I7H7 H7H6 H6H5 H5H4 H4H3 H3H2 H2H1 H1G1 G1F1 F1E1 E1D1 D1C1 C1B1 B1A1"/>
        <param key="has.btsender.device" value="true"/>
    </vehicle>
    <vehicle depart="4.00" id="4">
        <route edges="E2E3 E3D3 D3C3 C3B3 B3A3 A3B3"/>
        <param key="has.btsender.device" value="true"/>
    </vehicle>
    <vehicle depart="5.00" id="5">
        <route edges="C3C2 C2C1 C1C0 C0D0 D0E0 E0F0 F0F1"/>
        <param key="has.btsender.device" value="true"/>
    </vehicle>
    <vehicle depart="6.00" id="6">
        <route edges="A3A4 A4B4 B4C4 C4C3 C3C2 C2C1 C1C2"/>
        <param key="has.btsender.device" value="true"/>
    </vehicle>
    <vehicle depart="7.00" id="7">
        <route edges="G4F4 F4F3"/>
        <param key="has.btsender.device" value="true"/>
    </vehicle>
    <vehicle depart="8.00" id="8">
        <route edges="C3C4 C4C5 C5C6 C6C7 C7C8 C8D8 D8E8 E8F8 F8F7"/>
        <param key="has.btsender.device" value="true"/>
    </vehicle>
    <vehicle depart="9.00" id="9">
        <route edges="H9G9 G9F9 F9E9 E9D9 D9C9 C9B9 B9A9 A9A8 A8A7 A7A6 A6A5 A5A4 A4A3 A3A2 A2A1 A1A0"/>
        <param key="has.btsender.device" value="true"/>
    </vehicle>
    <vehicle depart="10.00" id="10">
        <route edges="H8I8 I8H8 H8G8 G8G9"/>
        <param key="has.btsender.device" value="true"/>
    </vehicle>
    <vehicle depart="11.00" id="11">
        <route edges="D4E4 E4D4 D4C4 C4B4 B4B5 B5B6 B6B7 B7A7"/>
        <param key="has.btsender.device" value="true"/>
    </vehicle>
    <vehicle depart="12.00" id="12">
        <route edges="J4J3 J3I3 I3H3 H3G3 G3F3 F3E3 E3D3 D3D4 D4D5"/>
        <param key="has.btsender.device" value="true"/>
    </vehicle>
    <vehicle depart="13.00" id="13">
        <route edges="B1B2 B2B1 B1C1"/>
        <param key="has.btsender.device" value="true"/>
    </vehicle>
    <vehicle depart="14.00" id="14">
        <route edges="I3H3 H3G3 G3F3 F3F4 F4F5 F5F6 F6F7 F7F8 F8F9 F9G9"/>
        <param key="has.btsender.device" value="true"/>
    </vehicle>
    <vehicle depart="15.00" id="15">
        <route edges="H8I8 I8I7 I7I6 I6I5 I5I4 I4I3 I3I2 I2I1 I1H1 H1I1"/>
        <param key="has.btsender.device" value="true"/>
    </vehicle>
    <vehicle depart="16.00" id="16">
        <route edges="F3F4 F4F5 F5F6 F6G6 G6H6 H6I6 I6J6 J6J5"/>
        <param key="has.btsender.device" value="true"/>
    </vehicle>
    <vehicle depart="17.00" id="17">
        <route edges="D8D7 D7D6 D6D5 D5D4 D4E4 E4F4 F4G4"/>
        <param key="has.btsender.device" value="true"/>
    </vehicle>
    <vehicle depart="18.00" id="18">
        <route edges="I1I0 I0H0 H0G0 G0G1 G1G0"/>
        <param key="has.btsender.device" value="true"/>
    </vehicle>
    <vehicle depart="19.00" id="19">
        <route edges="I4I3 I3H3 H3G3 G3F3 F3F4 F4F5 F5F6 F6F7 F7E7"/>
        <param key="has.btsender.device" value="true"/>
    </vehicle>
    <vehicle depart="20.00" id="20">
        <route edges="G9F9 F9E9 E9D9 D9C9 C9B9 B9A9 A9A8 A8A7 A7A6 A6A5 A5B5"/>
        <param key="has.btsender.device" value="true"/>
    </vehicle>
    <vehicle depart="21.00" id="21">
        <route edges="C4C3 C3C2 C2C1 C1C0 C0D0 D0C0"/>
        <param key="has.btsender.device" value="true"/>
    </vehicle>
    <vehicle depart="22.00" id="22">
        <route edges="B0A0 A0A1 A1A2 A2A3 A3A4 A4B4 B4C4 C4C5"/>
        <param key="has.btsender.device" value="true"/>
    </vehicle>
    <vehicle depart="23.00" id="23">
        <route edges="B2B1 B1B2 B2B3 B3B4 B4B5 B5B6 B6B7 B7B8 B8C8 C8D8"/>
        <param key="has.btsender.device" value="true"/>
    </vehicle>
    <vehicle depart="24.00" id="24">
        <route edges="G2H2 H2G2 G2F2 F2E2 E2D2 D2D3 D3D4 D4D5 D5D6 D6D7 D7C7"/>
        <param key="has.btsender.device" value="true"/>
    </vehicle>
    <vehicle depart="25.00" id="25">
        <route edges="D7D8 D8D7 D7D6 D6D5 D5D4 D4D3 D3D2 D2C2 C2C3"/>
        <param key="has.btsender.device" value="true"/>
    </vehicle>
    <vehicle depart="26.00" id="26">
        <route edges="C7D7 D7E7 E7F7 F7G7 G7H7 H7I7 I7J7 J7J6 J6J5 J5J4 J4J3 J3J2 J2I2"/>
        <param key="has.btsender.device" value="true"/>
    </vehicle>
    <vehicle depart="27.00" id="27">
        <route edges="G4F4 F4G4 G4G3 G3G2 G2G1 G1G0 G0G1"/>
        <param key="has.btsender.device" value="true"/>
    </vehicle>
    <vehicle depart="28.00" id="28">
        <route edges="B8B9 B9C9 C9D9 D9E9 E9F9 F9G9 G9H9 H9H8 H8H7 H7H6 H6H5 H5H4 H4H3 H3H2 H2H1 H1I1"/>
        <param key="has.btsender.device" value="true"/>
    </vehicle>
    <vehicle depart="29.00" id="29">
        <route edges="B7C7 C7C8 C8D8 D8D7"/>
        <param key="has.btsender.device" value="true"/>
    </vehicle>
    <vehicle depart="30.00" id="30">
        <route edges="J8J7 J7J6 J6J5 J5J4 J4J3 J3I3 I3H3 H3G3 G3G2"/>
        <param key="has.btsender.device" value="true"/>
    </vehicle>
    <vehicle depart="31.00" id="31">
        <route edges="F5F4 F4F5 F5F6 F6F7 F7G7 G7G6"/>
        <param key="has.btsender.device" value="true"/>
    </vehicle>
    <vehicle depart="32.00" id="32">
        <route edges="I2I3 I3I4 I4I5 I5I6 I6H6 H6G6"/>
        <param key="has.btsender.device" value="true"/>
    </vehicle>
    <vehicle depart="33.00" id="33">
        <route edges="C4C3 C3B3 B3A3 A3A4 A4A3"/>
        <param key="has.btsender.device" value="true"/>
    </vehicle>
    <vehicle depart="34.00" id="34">
        <route edges="D2D3 D3D4 D4D5 D5D6 D6D7 D7C7 C7D7"/>
        <param key="has.btsender.device" value="true"/>
    </vehicle>
    <vehicle depart="35.00" id="35">
        <route edges="C2C3 C3D3 D3E3 E3F3 F3G3 G3H3 H3I3 I3J3 J3J2 J2J3"/>
        <param key="has.btsender.device" value="true"/>
    </vehicle>
    <vehicle depart="36.00" id="36">
        <route edges="I5I6 I6I5 I5I4 I4I3 I3I2 I2H2 H2G2 G2F2 F2E2 E2D2 D2D3"/>
        <param key="has.btsender.device" value="true"/>
    </vehicle>
    <vehicle depart="37.00" id="37">
        <route edges="G4G5 G5G4 G4G3 G3G2 G2G1 G1G0 G0F0 F0E0 E0D0"/>
        <param key="has.btsender.device" value="true"/>
    </vehicle>
    <vehicle depart="38.00" id="38">
        <route edges="I9H9 H9G9 G9F9 F9E9 E9E8 E8E7 E7E6 E6D6"/>
        <param key="has.btsender.device" value="true"/>
    </vehicle>
    <vehicle depart="39.00" id="39">
        <route edges="C7C8 C8C7 C7C6 C6C5 C5D5"/>
        <param key="has.btsender.device" value="true"/>
    </vehicle>
    <vehicle depart="40.00" id="40">
        <route edges="F5G5 G5F5 F5E5 E5D5 D5C5 C5C6 C6C7 C7C6"/>
        <param key="has.btsender.device" value="true"/>
    </vehicle>
    <vehicle depart="41.00" id="41">
        <route edges="F7G7 G7H7 H7I7 I7I8"/>
        <param key="has.btsender.device" value="true"/>
    </vehicle>
    <vehicle depart="42.00" id="42">
        <route edges="E0E1 E1E2 E2E3 E3D3 D3C3 C3C2"/>
        <param key="has.btsender.device" value="true"/>
    </vehicle>
    <vehicle depart="43.00" id="43">
        <route edges="J9J8 J8J7 J7J6 J6J5 J5J4 J4J3 J3J2 J2J1 J1I1 I1H1 H1G1 G1F1 F1E1"/>
        <param key="has.btsender.device" value="true"/>
    </vehicle>
    <vehicle depart="44.00" id="44">
        <route edges="B1B0 B0A0 A0A1 A1A2 A2A3 A3A4 A4A5 A5B5"/>
        <param key="has.btsender.device" value="true"/>
    </vehicle>
    <vehicle depart="45.00" id="45">
        <route edges="B3A3 A3B3 B3C3 C3D3 D3E3 E3F3 F3G3 G3G2 G2F2"/>
        <param key="has.btsender.device" value="true"/>
    </vehicle>
    <vehicle depart="46.00" id="46">
        <route edges="H7H8 H8H7 H7H6 H6H5 H5H4 H4H3 H3H2 H2G2 G2F2 F2E2 E2E3"/>
        <param key="has.btsender.device" value="true"/>
    </vehicle>
    <vehicle depart="47.00" id="47">
        <route edges="A7B7 B7C7 C7D7 D7D8 D8D9"/>
        <param key="has.btsender.device" value="true"/>
    </vehicle>
    <vehicle depart="48.00" id="48">
        <route edges="J9I9 I9H9 H9G9 G9G8 G8G7 G7G6 G6G5 G5G4 G4G3 G3G2 G2F2 F2G2"/>
        <param key="has.btsender.device" value="true"/>
    </vehicle>
    <vehicle depart="49.00" id="49">
        <route edges="J6I6 I6I5 I5I4 I4H4"/>
        <param key="has.btsender.device" value="true"/>
    </vehicle>
    <vehicle depart="50.00" id="50">
        <route edges="A1B1 B1C1 C1D1 D1E1 E1F1 F1G1 G1H1 H1G1"/>
        <param key="has.btsender.device" value="true"/>
    </vehicle>
    <vehicle depart="51.00" id="51">
        <route edges="G7F7 F7F6 F6F5 F5F4 F4F3 F3F4"/>
        <param key="has.btsender.device" value="true"/>
    </vehicle>
    <vehicle depart="52.00" id="52">
        <route edges="C7D7 D7E7 E7F7 F7G7 G7G6 G6G5 G5G4 G4G3 G3G2"/>
        <param key="has.btsender.device" value="true"/>
    </vehicle>
    <vehicle depart="53.00" id="53">
        <route edges="B3B2 B2B3 B3C3 C3D3 D3E3 E3F3"/>
        <param key="has.btsender.device" value="true"/>
    </vehicle>
    <vehicle depart="54.00" id="54">
        <route edges="E5E6 E6F6 F6G6 G6H6 H6I6 I6J6 J6J5 J5J4 J4I4"/>
        <param key="has.btsender.device" value="true"/>
    </vehicle>
    <vehicle depart="55.00" id="55">
        <route edges="I5I6 I6I7 I7H7 H7G7 G7F7 F7E7 E7D7 D7C7 C7C6"/>
        <param key="has.btsender.device" value="true"/>
    </vehicle>
    <vehicle depart="56.00" id="56">
        <route edges="F0E0 E0D0 D0C0 C0B0 B0B1 B1B2 B2B3 B3B4 B4B5 B5B6 B6B7 B7B8 B8B9 B9B8"/>
        <param key="has.btsender.device" value="true"/>
    </vehicle>
    <vehicle depart="57.00" id="57">
        <route edges="I8J8 J8J7 J7J6 J6J5 J5I5 I5H5"/>
        <param key="has.btsender.device" value="true"/>
    </vehicle>
    <vehicle depart="58.00" id="58">
        <route edges="D1C1 C1C2 C2C3 C3D3 D3E3 E3F3 F3G3 G3G2"/>
        <param key="has.btsender.device" value="true"/>
    </vehicle>
    <vehicle depart="59.00" id="59">
        <route edges="G0G1 G1G2 G2G3 G3G4 G4G5 G5G6 G6G7 G7F7 F7E7 E7D7 D7C7 C7B7 B7A7"/>
        <param key="has.btsender.device" value="true"/>
    </vehicle>
    <vehicle depart="60.00" id="60">
        <route edges="H4I4 I4I3 I3H3 H3G3 G3F3 F3G3"/>
        <param key="has.btsender.device" value="true"/>
    </vehicle>
    <vehicle depart="61.00" id="61">
        <route edges="H6H5 H5H4 H4H3 H3H2 H2G2 G2F2 F2G2"/>
        <param key="has.btsender.device" value="true"/>
    </vehicle>
    <vehicle depart="62.00" id="62">
        <route edges="A0A1 A1A2 A2A3 A3B3 B3C3 C3D3 D3D2"/>
        <param key="has.btsender.device" value="true"/>
    </vehicle>
    <vehicle depart="63.00" id="63">
        <route edges="A2B2 B2C2 C2D2 D2E2 E2F2 F2G2 G2H2 H2I2 I2J2 J2J1 J1I1"/>
        <param key="has.btsender.device" value="true"/>
    </vehicle>
    <vehicle depart="64.00" id="64">
        <route edges="I5J5 J5J4 J4J3 J3J2 J2J1 J1I1 I1I2"/>
        <param key="has.btsender.device" value="true"/>
    </vehicle>
    <vehicle depart="65.00" id="65">
        <route edges="D1E1 E1D1 D1C1 C1B1 B1A1 A1A2 A2A3 A3A4 A4A5 A5A6 A6A7 A7A6"/>
        <param key="has.btsender.device" value="true"/>
    </vehicle>
    <vehicle depart="66.00" id="66">
        <route edges="I5J5 J5J4 J4J3 J3I3"/>
        <param key="has.btsender.device" value="true"/>
    </vehicle>
    <vehicle depart="67.00" id="67">
        <route edges="B0C0 C0D0 D0D1 D1D2 D2D3 D3D4 D4D5 D5D6 D6D7 D7D8 D8E8 E8E7"/>
        <param key="has.btsender.device" value="true"/>
    </vehicle>
    <vehicle depart="68.00" id="68">
        <route edges="A8A9 A9B9 B9C9 C9D9 D9E9 E9F9 F9G9 G9H9 H9H8 H8H7 H7H6 H6H5 H5H4 H4H5"/>
        <param key="has.btsender.device" value="true"/>
    </vehicle>
    <vehicle depart="69.00" id="69">
        <route edges="H5G5 G5F5 F5E5 E5D5 D5D4 D4C4 C4B4 B4C4"/>
        <param key="has.btsender.device" value="true"/>
    </vehicle>
    <vehicle depart="70.00" id="70">
        <route edges="E7E8 E8F8 F8F7 F7F6 F6F5 F5F4 F4F5"/>
        <param key="has.btsender.device" value="true"/>
    </vehicle>
    <vehicle depart="71.00" id="71">
        <route edges="C7C8 C8D8 D8E8 E8F8 F8G8 G8H8 H8I8 I8I7 I7I6 I6I5 I5I4"/>
        <param key="has.btsender.device" value="true"/>
    </vehicle>
    <vehicle depart="72.00" id="72">
        <route edges="E2F2 F2E2 E2D2 D2C2 C2D2"/>
        <param key="has.btsender.device" value="true"/>
    </vehicle>
    <vehicle depart="73.00" id="73">
        <route edges="F3G3 G3H3 H3H2 H2H1 H1I1"/>
        <param key="has.btsender.device" value="true"/>
    </vehicle>
    <vehicle depart="74.00" id="74">
        <route edges="C1D1 D1D2 D2D1"/>
        <param key="has.btsender.device" value="true"/>
    </vehicle>
    <vehicle depart="75.00" id="75">
        <route edges="J9I9 I9H9 H9G9 G9G8 G8G7 G7G6 G6G5 G5G4 G4F4"/>
        <param key="has.btsender.device" value="true"/>
    </vehicle>
    <vehicle depart="76.00" id="76">
        <route edges="E4D4 D4E4 E4F4 F4F3 F3F2 F2F1 F1G1"/>
        <param key="has.btsender.device" value="true"/>
    </vehicle>
    <vehicle depart="77.00" id="77">
        <route edges="B4A4 A4B4 B4C4 C4C3 C3D3"/>
        <param key="has.btsender.device" value="true"/>
    </vehicle>
    <vehicle depart="78.00" id="78">
        <route edges="D4D5 D5D6 D6D7 D7D8 D8E8 E8F8 F8E8"/>
        <param key="has.btsender.device" value="true"/>
    </vehicle>
    <vehicle depart="79.00" id="79">
        <route edges="C4C3 C3C4"/>
        <param key="has.btsender.device" value="true"/>
    </vehicle>
    <vehicle depart="80.00" id="80">
        <route edges="A8B8 B8C8 C8D8 D8E8 E8F8 F8G8 G8G7 G7G6 G6G5 G5G4 G4G3 G3G2 G2G3"/>
        <param key="has.btsender.device" value="true"/>
    </vehicle>
    <vehicle depart="81.00" id="81">
        <route edges="C4C3 C3C4 C4C5 C5C6 C6C7 C7C8 C8D8 D8E8 E8F8 F8G8 G8H8 H8I8 I8H8"/>
        <param key="has.btsender.device" value="true"/>
    </vehicle>
    <vehicle depart="82.00" id="82">
        <route edges="I4H4 H4G4 G4F4 F4E4 E4D4 D4C4 C4B4 B4A4 A4A5 A5A6 A6A7 A7A8 A8B8"/>
        <param key="has.btsender.device" value="true"/>
    </vehicle>
    <vehicle depart="83.00" id="83">
        <route edges="C5B5 B5C5 C5D5 D5E5 E5F5 F5G5 G5H5"/>
        <param key="has.btsender.device" value="true"/>
    </vehicle>
    <vehicle depart="84.00" id="84">
        <route edges="C3B3 B3B4 B4B5 B5A5"/>
        <param key="has.btsender.device" value="true"/>
    </vehicle>
    <vehicle depart="85.00" id="85">
        <route edges="J1J2 J2J3 J3J4 J4J5 J5J6 J6I6 I6H6 H6G6 G6F6 F6F7"/>
        <param key="has.btsender.device" value="true"/>
    </vehicle>
    <vehicle depart="86.00" id="86">
        <route edges="E7E6 E6F6 F6G6 G6H6 H6I6"/>
        <param key="has.btsender.device" value="true"/>
    </vehicle>
    <vehicle depart="87.00" id="87">
        <route edges="H8I8 I8I7 I7I6 I6I5 I5I4 I4I3 I3I2 I2I1 I1I0 I0H0 H0G0 G0F0 F0E0 E0D0 D0C0 C0D0"/>
        <param key="has.btsender.device" value="true"/>
    </vehicle>
    <vehicle depart="88.00" id="88">
        <route edges="B1C1 C1D1 D1E1 E1E2 E2E3 E3E4"/>
        <param key="has.btsender.device" value="true"/>
    </vehicle>
    <vehicle depart="89.00" id="89">
        <route edges="E2F2 F2E2 E2E3 E3E4 E4E5 E5E6 E6F6"/>
        <param key="has.btsender.device" value="true"/>
    </vehicle>
    <vehicle depart="90.00" id="90">
        <route edges="H1I1 I1H1 H1G1 G1G2 G2G3 G3G4 G4G5 G5G6 G6G5"/>
        <param key="has.btsender.device" value="true"/>
    </vehicle>
    <vehicle depart="91.00" id="91">
        <route edges="J7J8 J8J7 J7J6 J6J5 J5J4 J4J3 J3J2 J2I2 I2H2 H2G2 G2F2 F2E2 E2D2 D2C2 C2B2 B2A2"/>
        <param key="has.btsender.device" value="true"/>
    </vehicle>
    <vehicle depart="92.00" id="92">
        <route edges="E0F0 F0E0 E0D0 D0D1 D1D2 D2D3 D3D4 D4E4"/>
        <param key="has.btsender.device" value="true"/>
    </vehicle>
    <vehicle depart="93.00" id="93">
        <route edges="I4I3 I3H3 H3G3 G3F3 F3E3 E3D3 D3C3 C3C4 C4C5 C5C6 C6B6"/>
        <param key="has.btsender.device" value="true"/>
    </vehicle>
    <vehicle depart="94.00" id="94">
        <route edges="C0D0 D0D1 D1D2 D2D3 D3D4 D4D5 D5E5 E5D5"/>
        <param key="has.btsender.device" value="true"/>
    </vehicle>
    <vehicle depart="95.00" id="95">
        <route edges="E2E3 E3E4 E4E5 E5E6 E6E7 E7E8 E8D8 D8C8 C8D8"/>
        <param key="has.btsender.device" value="true"/>
    </vehicle>
    <vehicle depart="96.00" id="96">
        <route edges="C6B6 B6C6 C6D6 D6E6 E6F6 F6G6 G6H6 H6I6 I6J6 J6J5 J5J4 J4J3 J3J2 J2J1 J1J0 J0I0"/>
        <param key="has.btsender.device" value="true"/>
    </vehicle>
    <vehicle depart="97.00" id="97">
        <route edges="E4E5 E5F5 F5G5 G5H5 H5I5 I5I4 I4I3"/>
        <param key="has.btsender.device" value="true"/>
    </vehicle>
    <vehicle depart="98.00" id="98">
        <route edges="F4G4 G4F4 F4E4 E4D4 D4C4 C4B4 B4A4 A4A5 A5A6 A6A7"/>
        <param key="has.btsender.device" value="true"/>
    </vehicle>
    <vehicle depart="99.00" id="99">
        <route edges="J9J8 J8J7 J7J6 J6J5 J5J4 J4J3 J3J2 J2J1 J1I1 I1J1"/>
        <param key="has.btsender.device" value="true"/>
    </vehicle>
    <vehicle depart="100.00" id="100">
        <route edges="J5J6 J6J5 J5J4 J4J3 J3J2 J2J1 J1J0 J0I0 I0J0 J0J1"/>
        <param key="has.btsender.device" value="true"/>
    </vehicle>
    <vehicle depart="101.00" id="101">
        <route edges="I3H3 H3G3 G3F3 F3E3 E3D3 D3C3 C3B3 B3B4 B4B5 B5B6 B6B7 B7B8 B8A8"/>
        <param key="has.btsender.device" value="true"/>
    </vehicle>
    <vehicle depart="102.00" id="102">
        <route edges="E8E7 E7E6 E6E5 E5E4 E4E3 E3E2 E2D2 D2C2 C2D2"/>
        <param key="has.btsender.device" value="true"/>
    </vehicle>
    <vehicle depart="103.00" id="103">
        <route edges="E0F0 F0E0 E0D0 D0C0 C0B0 B0A0 A0A1 A1A2 A2A3 A3A4 A4A5 A5A6 A6A7 A7A8"/>
        <param key="has.btsender.device" value="true"/>
    </vehicle>
    <vehicle depart="104.00" id="104">
        <route edges="D8D7 D7E7 E7F7 F7G7 G7H7 H7I7 I7J7 J7J8"/>
        <param key="has.btsender.device" value="true"/>
    </vehicle>
    <vehicle depart="105.00" id="105">
        <route edges="C7C8 C8D8 D8E8 E8F8 F8G8 G8H8 H8H7 H7H6 H6I6"/>
        <param key="has.btsender.device" value="true"/>
    </vehicle>
    <vehicle depart="106.00" id="106">
        <route edges="E5E6 E6E5 E5E4 E4E3 E3E2 E2F2"/>
        <param key="has.btsender.device" value="true"/>
    </vehicle>
    <vehicle depart="107.00" id="107">
        <route edges="J4J3 J3J4 J4J5 J5J6 J6J7 J7J8 J8J9 J9I9"/>
        <param key="has.btsender.device" value="true"/>
    </vehicle>
    <vehicle depart="108.00" id="108">
        <route edges="F5F4 F4F3 F3F2 F2F1 F1F0 F0G0 G0H0 H0I0"/>
        <param key="has.btsender.device" value="true"/>
    </vehicle>
    <vehicle depart="109.00" id="109">
        <route edges="B7A7 A7A6 A6A5 A5A4 A4A3 A3A2 A2A1 A1A0 A0B0 B0C0 C0D0 D0E0"/>
        <param key="has.btsender.device" value="true"/>
    </vehicle>
    <vehicle depart="110.00" id="110">
        <route edges="J5J6 J6J7 J7I7 I7H7 H7G7 G7F7 F7F6"/>
        <param key="has.btsender.device" value="true"/>
    </vehicle>
    <vehicle depart="111.00" id="111">
        <route edges="F4E4 E4F4 F4G4 G4H4 H4H3 H3H4"/>
        <param key="has.btsender.device" value="true"/>
    </vehicle>
    <vehicle depart="112.00" id="112">
        <route edges="A7A6 A6A7 A7B7 B7C7 C7D7 D7E7 E7F7 F7G7"/>
        <param key="has.btsender.device" value="true"/>
    </vehicle>
    <vehicle depart="113.00" id="113">
        <route edges="F0F1 F1F2 F2F3 F3G3 G3H3 H3I3 I3I2"/>
        <param key="has.btsender.device" value="true"/>
    </vehicle>
    <vehicle depart="114.00" id="114">
        <route edges="B7B6 B6B5 B5B4 B4C4 C4D4 D4E4 E4F4 F4G4 G4H4 H4I4 I4J4 J4J5"/>
        <param key="has.btsender.device" value="true"/>
    </vehicle>
    <vehicle depart="115.00" id="115">
        <route edges="B0A0 A0A1 A1B1 B1C1 C1C0 C0B0"/>
        <param key="has.btsender.device" value="true"/>
    </vehicle>
    <vehicle depart="116.00" id="116">
        <route edges="F8G8 G8G7 G7G6 G6G7"/>
        <param key="has.btsender.device" value="true"/>
    </vehicle>
    <vehicle depart="117.00" id="117">
        <route edges="C4D4 D4C4 C4B4 B4A4"/>
        <param key="has.btsender.device" value="true"/>
    </vehicle>
    <vehicle depart="118.00" id="118">
        <route edges="I6J6 J6J5 J5I5 I5H5 H5G5 G5F5 F5E5 E5D5 D5C5 C5D5"/>
        <param key="has.btsender.device" value="true"/>
    </vehicle>
    <vehicle depart="119.00" id="119">
        <route edges="F8G8 G8G7 G7G6 G6G5 G5G4 G4G3 G3G2 G2G1 G1G0"/>
        <param key="has.btsender.device" value="true"/>
    </vehicle>
    <vehicle depart="120.00" id="120">
        <route edges="E2E1 E1E2 E2E3 E3E4 E4E5 E5E6 E6E7 E7F7 F7G7"/>
        <param key="has.btsender.device" value="true"/>
    </vehicle>
    <vehicle depart="121.00" id="121">
        <route edges="F2F1 F1G1 G1H1 H1I1 I1J1 J1J2"/>
        <param key="has.btsender.device" value="true"/>
    </vehicle>
    <vehicle depart="122.00" id="122">
        <route edges="C2B2 B2B1 B1B0 B0C0 C0D0 D0E0 E0F0 F0G0 G0H0 H0H1"/>
        <param key="has.btsender.device" value="true"/>
    </vehicle>
    <vehicle depart="123.00" id="123">
        <route edges="C5B5 B5B4 B4B3 B3B2 B2B1 B1B0 B0C0 C0D0 D0E0 E0D0"/>
        <param key="has.btsender.device" value="true"/>
    </vehicle>
    <vehicle depart="124.00" id="124">
        <route edges="G6F6 F6F5 F5F4 F4F3 F3F2 F2F1 F1E1 E1D1 D1C1"/>
        <param key="has.btsender.device" value="true"/>
    </vehicle>
    <vehicle depart="125.00" id="125">
        <route edges="D2D3 D3E3 E3F3 F3G3 G3H3 H3I3"/>
        <param key="has.btsender.device" value="true"/>
    </vehicle>
    <vehicle depart="126.00" id="126">
        <route edges="A9A8 A8A7 A7A6 A6A5 A5B5 B5C5 C5D5 D5E5 E5F5"/>
        <param key="has.btsender.device" value="true"/>
    </vehicle>
    <vehicle depart="127.00" id="127">
        <route edges="J9J8 J8J9 J9I9"/>
        <param key="has.btsender.device" value="true"/>
    </vehicle>
    <vehicle depart="128.00" id="128">
        <route edges="A9A8 A8A7 A7A6 A6A5 A5A4 A4A3 A3A2 A2B2 B2C2 C2D2"/>
        <param key="has.btsender.device" value="true"/>
    </vehicle>
    <vehicle depart="129.00" id="129">
        <route edges="C7C8 C8D8 D8E8 E8F8 F8G8 G8H8 H8I8 I8J8 J8J7 J7J6 J6J5 J5J4 J4J3 J3J2 J2J1 J1J0"/>
        <param key="has.btsender.device" value="true"/>
    </vehicle>
    <vehicle depart="130.00" id="130">
        <route edges="I6H6 H6I6 I6I5 I5J5"/>
        <param key="has.btsender.device" value="true"/>
    </vehicle>
    <vehicle depart="131.00" id="131">
        <route edges="D7D8 D8D7 D7C7 C7B7 B7B6"/>
        <param key="has.btsender.device" value="true"/>
    </vehicle>
    <vehicle depart="132.00" id="132">
        <route edges="I1J1 J1J2 J2J3 J3J4 J4J5 J5J6 J6J7 J7J8 J8J9 J9I9 I9H9 H9G9 G9F9"/>
        <param key="has.btsender.device" value="true"/>
    </vehicle>
    <vehicle depart="133.00" id="133">
        <route edges="G0H0 H0I0 I0J0 J0J1 J1J2 J2J3 J3J4 J4J5 J5J6 J6J7 J7J8 J8I8"/>
        <param key="has.btsender.device" value="true"/>
    </vehicle>
    <vehicle depart="134.00" id="134">
        <route edges="G4G5 G5G4 G4G3 G3G2 G2G1 G1F1 F1E1 E1D1 D1C1 C1B1 B1A1 A1A0"/>
        <param key="has.btsender.device" value="true"/>
    </vehicle>
    <vehicle depart="135.00" id="135">
        <route edges="I0H0 H0G0 G0F0 F0E0 E0D0 D0D1 D1C1"/>
        <param key="has.btsender.device" value="true"/>
    </vehicle>
    <vehicle depart="136.00" id="136">
        <route edges="G5G4 G4G3 G3G2 G2H2 H2I2 I2J2 J2J1"/>
        <param key="has.btsender.device" value="true"/>
    </vehicle>
    <vehicle depart="137.00" id="137">
        <route edges="B5B4 B4B3 B3B4"/>
        <param key="has.btsender.device" value="true"/>
    </vehicle>
    <vehicle depart="138.00" id="138">
        <route edges="B2C2 C2C3 C3C4 C4C5 C5D5 D5E5 E5F5 F5E5"/>
        <param key="has.btsender.device" value="true"/>
    </vehicle>
    <vehicle depart="139.00" id="139">
        <route edges="C8C7 C7C8 C8C9 C9D9 D9E9 E9F9 F9G9"/>
        <param key="has.btsender.device" value="true"/>
    </vehicle>
    <vehicle depart="140.00" id="140">
        <route edges="H0I0 I0H0 H0G0 G0F0 F0E0 E0D0 D0C0 C0C1 C1C2 C2B2"/>
        <param key="has.btsender.device" value="true"/>
    </vehicle>
    <vehicle depart="141.00" id="141">
        <route edges="G2H2 H2G2 G2F2 F2E2 E2D2 D2C2 C2C3 C3C4 C4C5 C5C6 C6C7 C7C8"/>
        <param key="has.btsender.device" value="true"/>
    </vehicle>
    <vehicle depart="142.00" id="142">
        <route edges="E8E9 E9F9 F9G9 G9H9 H9I9 I9I8 I8H8"/>
        <param key="has.btsender.device" value="true"/>
    </vehicle>
    <vehicle depart="143.00" id="143">
        <route edges="I2J2 J2J1 J1I1 I1H1 H1G1 G1F1 F1E1 E1D1 D1C1 C1B1 B1B2"/>
        <param key="has.btsender.device" value="true"/>
    </vehicle>
    <vehicle depart="144.00" id="144">
        <route edges="E2F2 F2E2 E2D2 D2C2 C2C3 C3C4 C4C5 C5C6 C6C7 C7C8 C8C9"/>
        <param key="has.btsender.device" value="true"/>
    </vehicle>
    <vehicle depart="145.00" id="145">
        <route edges="A0B0 B0C0 C0D0 D0E0 E0F0 F0G0 G0H0 H0H1 H1H2 H2H3 H3H4 H4H5 H5H6"/>
        <param key="has.btsender.device" value="true"/>
    </vehicle>
    <vehicle depart="146.00" id="146">
        <route edges="G3F3 F3E3 E3D3 D3C3 C3C4 C4C5 C5C6 C6C7 C7C6"/>
        <param key="has.btsender.device" value="true"/>
    </vehicle>
    <vehicle depart="147.00" id="147">
        <route edges="H2I2 I2H2 H2G2 G2F2 F2F3 F3F4 F4G4"/>
        <param key="has.btsender.device" value="true"/>
    </vehicle>
    <vehicle depart="148.00" id="148">
        <route edges="E3D3 D3D2 D2D1 D1C1 C1B1 B1A1 A1A2"/>
        <param key="has.btsender.device" value="true"/>
    </vehicle>
    <vehicle depart="149.00" id="149">
        <route edges="A9B9 B9C9 C9D9 D9E9 E9F9 F9G9 G9H9 H9I9 I9I8 I8I7 I7I6 I6H6"/>
        <param key="has.btsender.device" value="true"/>
    </vehicle>
    <vehicle depart="150.00" id="150">
        <route edges="I8H8 H8G8 G8F8 F8F7 F7F6 F6F5 F5F4 F4F3"/>
        <param key="has.btsender.device" value="true"/>
    </vehicle>
    <vehicle depart="151.00" id="151">
        <route edges="I1J1 J1I1 I1H1 H1G1 G1F1 F1F2 F2F3 F3F4 F4F5 F5F6 F6F7 F7F8"/>
        <param key="has.btsender.device" value="true"/>
    </vehicle>
    <vehicle depart="152.00" id="152">
        <route edges="B6B7 B7B6 B6B5 B5B4 B4B5"/>
        <param key="has.btsender.device" value="true"/>
    </vehicle>
    <vehicle depart="153.00" id="153">
        <route edges="D1E1 E1F1 F1G1 G1H1 H1I1 I1I2 I2I3 I3I4 I4I5 I5I6 I6I7 I7I8"/>
        <param key="has.btsender.device" value="true"/>
    </vehicle>
    <vehicle depart="154.00" id="154">
        <route edges="H7I7 I7I6 I6I5 I5I4 I4H4"/>
        <param key="has.btsender.device" value="true"/>
    </vehicle>
    <vehicle depart="155.00" id="155">
        <route edges="I7I8 I8I7 I7I6 I6I5 I5I4 I4I3 I3I2 I2H2 H2G2 G2F2 F2E2 E2D2 D2C2 C2C3"/>
        <param key="has.btsender.device" value="true"/>
    </vehicle>
    <vehicle depart="156.00" id="156">
        <route edges="C6B6 B6B5 B5B4 B4B3 B3B2 B2B3"/>
        <param key="has.btsender.device" value="true"/>
    </vehicle>
    <vehicle depart="157.00" id="157">
        <route edges="H6H5 H5H6 H6I6 I6I5"/>
        <param key="has.btsender.device" value="true"/>
    </vehicle>
    <vehicle depart="158.00" id="158">
        <route edges="E1E0 E0E1 E1F1 F1G1 G1G2"/>
        <param key="has.btsender.device" value="true"/>
    </vehicle>
    <vehicle depart="159.00" id="159">
        <route edges="B7A7 A7B7 B7C7 C7D7 D7E7 E7F7 F7G7 G7H7 H7I7 I7J7 J7J6 J6J5 J5J4 J4J3 J3J2 J2J1 J1I1"/>
        <param key="has.btsender.device" value="true"/>
    </vehicle>
    <vehicle depart="160.00" id="160">
        <route edges="I4I5 I5J5 J5J6 J6J7"/>
        <param key="has.btsender.device" value="true"/>
    </vehicle>
    <vehicle depart="161.00" id="161">
        <route edges="H9G9 G9H9 H9I9 I9I8 I8I7 I7I6 I6H6"/>
        <param key="has.btsender.device" value="true"/>
    </vehicle>
    <vehicle depart="162.00" id="162">
        <route edges="A3A2 A2B2 B2C2 C2D2 D2E2 E2F2 F2G2 G2H2 H2H3"/>
        <param key="has.btsender.device" value="true"/>
    </vehicle>
    <vehicle depart="163.00" id="163">
        <route edges="D4C4 C4D4 D4E4 E4F4 F4G4 G4H4 H4I4 I4J4 J4J3 J3J2 J2J1 J1J0"/>
        <param key="has.btsender.device" value="true"/>
    </vehicle>
    <vehicle depart="164.00" id="164">
        <route edges="H8H7 H7H6 H6H5 H5H4 H4I4 I4I5"/>
        <param key="has.btsender.device" value="true"/>
    </vehicle>
    <vehicle depart="165.00" id="165">
        <route edges="H9G9 G9F9 F9E9 E9D9 D9D8 D8D7 D7C7 C7D7"/>
        <param key="has.btsender.device" value="true"/>
    </vehicle>
    <vehicle depart="166.00" id="166">
        <route edges="H7G7 G7G6 G6G5 G5G4 G4G3 G3G2 G2F2 F2E2 E2D2 D2C2 C2B2 B2C2"/>
        <param key="has.btsender.device" value="true"/>
    </vehicle>
    <vehicle depart="167.00" id="167">
        <route edges="I5H5 H5I5 I5I4 I4H4"/>
        <param key="has.btsender.device" value="true"/>
    </vehicle>
    <vehicle depart="168.00" id="168">
        <route edges="C3D3 D3D4 D4D5 D5D6 D6D7 D7D8 D8D9 D9E9 E9F9 F9G9 G9H9 H9I9"/>
        <param key="has.btsender.device" value="true"/>
    </vehicle>
    <vehicle depart="169.00" id="169">
        <route edges="E6D6 D6D5 D5D4 D4D3 D3D2 D2D1 D1D2"/>
        <param key="has.btsender.device" value="true"/>
    </vehicle>