<?xml version="1.0" encoding="UTF-8"?>

<!-- generated on 2021-09-06 14:25:05 by Eclipse SUMO duarouter Version v1_10_0+0494-3badba79c1
<configuration xmlns:xsi="http://www.w3.org/2001/XMLSchema-instance" xsi:noNamespaceSchemaLocation="http://sumo.dlr.de/xsd/duarouterConfiguration.xsd">

    <input>
        <net-file value="examples/example.net.xml"/>
        <route-files value="trips.trips.xml"/>
    </input>

    <output>
        <output-file value="examples/example.rou.xml"/>
        <alternatives-output value="examples/example.rou.alt.xml"/>
    </output>

    <time>
        <begin value="0"/>
        <end value="3600"/>
    </time>

    <report>
        <no-warnings value="true"/>
        <ignore-errors value="true"/>
        <no-step-log value="true"/>
    </report>

</configuration>
-->

<routes xmlns:xsi="http://www.w3.org/2001/XMLSchema-instance" xsi:noNamespaceSchemaLocation="http://sumo.dlr.de/xsd/routes_file.xsd">
    <vehicle id="0" depart="0.00">
        <route edges="17 64 -121"/>
    </vehicle>
    <vehicle id="1" depart="1.00">
        <route edges="-3131 -2502 -2206 2202 -2168 -2166 -3439 -2756"/>
    </vehicle>
    <vehicle id="2" depart="2.00">
        <route edges="2439 -2439 -618 -579 -383 -128 -25 17 38 -117 119 330 -2200 -1882 -1774 1775 1935 2173 2453"/>
    </vehicle>
    <vehicle id="3" depart="3.00">
        <route edges="381 -210 -25 17 38 -117 119 330 -2200 -1882 -1523 1517 -1517"/>
    </vehicle>
    <vehicle id="4" depart="4.00">
        <route edges="-4469 -3742 -2895 -2423 -2158 -867 -618 -579 -383 -128 126 -125"/>
    </vehicle>
    <vehicle id="5" depart="5.00">
        <route edges="-2482 -2185 2186 2200 837 -674 650 848 3162 -3772 -1201 1199 -1343 1342 1345"/>
    </vehicle>
    <vehicle id="6" depart="6.00">
        <route edges="-121 123 338 523 -1415 -1357 -1767 2447 -2447"/>
    </vehicle>
    <vehicle id="7" depart="7.00">
        <route edges="1774 -1523 1499"/>
    </vehicle>
    <vehicle id="8" depart="8.00">
        <route edges="-2486 -2185 -1941 -1773 -1501 1517 1783 -1883 1895"/>
    </vehicle>
    <vehicle id="9" depart="9.00">
        <route edges="3166 3907 -3328 3252 -3773 -1201 1199 -1343 -1093 -1029"/>
    </vehicle>
    <vehicle id="10" depart="10.00">
        <route edges="3162 -3772 3773 -3252 -848 -650 -592 -332 -119 117 325 589 -4050 -3497 -2766 2766"/>
    </vehicle>
    <vehicle id="11" depart="11.00">
        <route edges="-3719 601 -613 614 2149 -2149"/>
    </vehicle>
    <vehicle id="12" depart="12.00">
        <route edges="639 -639 625 732 837 -674 650 848 3162 -3772"/>
    </vehicle>
    <vehicle id="13" depart="13.00">
        <route edges="-1524 -1431 1447 -1533"/>
    </vehicle>
    <vehicle id="14" depart="14.00">
        <route edges="3603 -3603 -1464 -1388 -533 -365 -344 -125 123 338 523 -1415 -1357 1494 -1533 -1524 1526 1883 1942 1944"/>
    </vehicle>
    <vehicle id="15" depart="15.00">
        <route edges="3162 -3772 3773 -3252 -848 -650 674 -837 -2200 -1882 -1774 1775 1935 2173 2453 3119"/>
    </vehicle>
    <vehicle id="16" depart="16.00">
        <route edges="-882 -639 -319 -117 -15 -3 11 728"/>
    </vehicle>
    <vehicle id="17" depart="17.00">
        <route edges="-381 -128 -25 17 38 319 639 876 -1359 1363 1429 1523"/>
    </vehicle>
    <vehicle id="18" depart="18.00">
        <route edges="3435 3438 3497 4050 -523 -338 -123 125 344 -349 585 -613 614 2149"/>
    </vehicle>
    <vehicle id="19" depart="19.00">
        <route edges="3739 -3737 -1404 -1345 -1342 1343 -1199 1201 3772 -3162 -848 -650 674 -837 -2200 -1882 -1523 1517 1783"/>
    </vehicle>
    <vehicle id="20" depart="20.00">
        <route edges="2183 -2183 -1935 -1775 -1501 -1429 1427 1447 -1494 1357 -1357"/>
    </vehicle>
    <vehicle id="21" depart="21.00">
        <route edges="-2607 -1532 1524 1533 -1494 1357 1415 -523 -338"/>
    </vehicle>
    <vehicle id="22" depart="22.00">
        <route edges="-1493 -1425 1415 -523 -338 -123 125 344 -349 585 -613 614 2149 2421 2881 -2881"/>
    </vehicle>
    <vehicle id="23" depart="23.00">
        <route edges="-1535 1535 -876 -639 -319 313 -326"/>
    </vehicle>
    <vehicle id="24" depart="24.00">
        <route edges="1533 -1494 1357 1415 -523 -338 -123 125 344 365 533 1388 1464 3611 4257 -4257"/>
    </vehicle>
    <vehicle id="25" depart="25.00">
        <route edges="-3799 3779 -3121 3122 -2486"/>
    </vehicle>
    <vehicle id="26" depart="26.00">
        <route edges="-3095 -2453 -2173 -1935 -1775 1774 1882 2200 -330 -119 -15 -3 11 728 1029 -1005 -612 608"/>
    </vehicle>
    <vehicle id="27" depart="27.00">
        <route edges="1773 1941 2186 2200 -330 -119 117 -38 -17 25 210"/>
    </vehicle>
    <vehicle id="28" depart="28.00">
        <route edges="-2185 2185 2482 -3121 -2183 2173 2453 3119"/>
    </vehicle>
    <vehicle id="29" depart="29.00">
        <route edges="-2168 -1930 1767 1357 1415 -523"/>
    </vehicle>
    <vehicle id="30" depart="30.00">
        <route edges="867 -867 -618 -579 -383 -128 -25 17 38 319 639 876 -1535 -1533 -1524 1526 1883 1942 1950 2198"/>
    </vehicle>
    <vehicle id="31" depart="31.00">
        <route edges="117 319 639 880 -1767 1930 2168 -2202 2206 2494"/>
    </vehicle>
    <vehicle id="32" depart="32.00">
        <route edges="3497 4050 -4050 -3497 -3438 3438"/>
    </vehicle>
    <vehicle id="33" depart="33.00">
        <route edges="-2714 -846 -642 -592 -332 -119 117 313 -326 -121 125 -126"/>
    </vehicle>
    <vehicle id="34" depart="34.00">
        <route edges="-3439 3438 3497 4050 -589 -325 -117 119 332 592 650 848 3252 -3773 3772 -3162"/>
    </vehicle>
    <vehicle id="35" depart="35.00">
        <route edges="-2447 1767 1357 1415 -523 -338 -123 125 344 -349 585 -613 614"/>
    </vehicle>
    <vehicle id="36" depart="36.00">
        <route edges="3772 -3162 3162 -3772 -1201 1199 -1343 -1093 -1005 -612 608 -614 618 2439 2979 3769 -4257 -3611"/>
    </vehicle>
    <vehicle id="37" depart="37.00">
        <route edges="1797 -1942 -1883 -1526 1524 1533 -1494 1357 1415 -523 517 -588"/>
    </vehicle>
    <vehicle id="38" depart="38.00">
        <route edges="505 -505 523 -1415 -1357 -880 882 -882"/>
    </vehicle>
    <vehicle id="39" depart="39.00">
        <route edges="-3093 -2453 -2173 -1935 -1775 1774 1882 2200 -330 -119 117 -38 -17 25 128 383 579 618 2439 2979 -2979"/>
    </vehicle>
    <vehicle id="40" depart="40.00">
        <route edges="1199 -1343 -1093 -1029 -728 -11 3 15 117 319 639 880 -1767 1930 2168 -2202 2206 2502 3131 -3131"/>
    </vehicle>
    <vehicle id="41" depart="41.00">
        <route edges="1357 1415 -523 -338 -123 -19 25 128 383 579 618 867 2158 2423 2961 4527"/>
    </vehicle>
    <vehicle id="42" depart="42.00">
        <route edges="-3897 -3145 -2112 -1891 1883 -1783 -1517 1523 1882 2200 837 -674 650 2724 3920 -3920 -2724"/>
    </vehicle>
    <vehicle id="43" depart="43.00">
        <route edges="882 1323 1359"/>
    </vehicle>
    <vehicle id="44" depart="44.00">
        <route edges="-1523 -1429 -1363 1359 -1359"/>
    </vehicle>
    <vehicle id="45" depart="45.00">
        <route edges="-1773 1775 1935 2173"/>
    </vehicle>
    <vehicle id="46" depart="46.00">
        <route edges="3093 -2477 -2173 -1935 -1775 1774 1882 2200 837 -674 642 -642"/>
    </vehicle>
    <vehicle id="47" depart="47.00">
        <route edges="-1425 1415 -523 -338 -123 125 344 365 533 -533"/>
    </vehicle>
    <vehicle id="48" depart="48.00">
        <route edges="880 1494 -1447 -1427 1429"/>
    </vehicle>
    <vehicle id="49" depart="49.00">
        <route edges="696 -679 -7 3 15 117 319 639 876 -1535 -1533 -1524 1526 1891 2112 3145 3897"/>
    </vehicle>
    <vehicle id="50" depart="50.00">
        <route edges="-1057 -523 -338 -123 125 344 365 533 2872 2873 2979"/>
    </vehicle>
    <vehicle id="51" depart="51.00">
        <route edges="2006 -2188 -1950 -1942 -1883 -1526 1524 1533 -1494 1357 1415 -523 -338 -123 125 344 365 533 1388 1464"/>
    </vehicle>
    <vehicle id="52" depart="52.00">
        <route edges="-3095 -2453 -2173 -1935 -1775 1774 1882 2200"/>
    </vehicle>
    <vehicle id="53" depart="53.00">
        <route edges="-1774 1774 1882 2200 -330 -119 -15 -3 7 -7"/>
    </vehicle>
    <vehicle id="54" depart="54.00">
        <route edges="-533 -365 -344 -125 121 326 -313 319 639"/>
    </vehicle>
    <vehicle id="55" depart="55.00">
        <route edges="3772 -3162 -848 -650 674 -837 -732 -625 639 880 -1767 1930 2168 -2202 2206 2502 3131 -3131"/>
    </vehicle>
    <vehicle id="56" depart="56.00">
        <route edges="-679 -7 3 15 117 319 639 876 -1535 -1533 -1524 1526 1891 2112 -2201"/>
    </vehicle>
    <vehicle id="57" depart="57.00">
        <route edges="504 597 684 2289 2732 3437 4049"/>
    </vehicle>
    <vehicle id="58" depart="58.00">
        <route edges="-330 330 -2200 -1882 -1523 1517 1797 1950 2198"/>
    </vehicle>
    <vehicle id="59" depart="59.00">
        <route edges="1441 2278 -2447 1930 2168 -2128"/>
    </vehicle>
    <vehicle id="60" depart="60.00">
        <route edges="2756 3439 -1483 1483"/>
    </vehicle>
    <vehicle id="61" depart="61.00">
        <route edges="2903 -2903 -2423 -2158 -867 -618 -579 -383 -128 -25 17 38 319 639 876 -1359 1363 1429"/>
    </vehicle>
    <vehicle id="62" depart="62.00">
        <route edges="-1005 1011 1345 1404 3737 -3739"/>
    </vehicle>
    <vehicle id="63" depart="63.00">
        <route edges="-119 117 325 589"/>
    </vehicle>
    <vehicle id="64" depart="64.00">
        <route edges="3773 -3252 -848 -650 674 -837 -2200 -2186 2185 2482 -3779 3799"/>
    </vehicle>
    <vehicle id="65" depart="65.00">
        <route edges="-336 -123 125 344 -349 585 -613 614 2149 2421 2893 -3737 -1404"/>
    </vehicle>
    <vehicle id="66" depart="66.00">
        <route edges="3773 -3252 -848 -650 674 -837 -732 -625 621"/>
    </vehicle>
    <vehicle id="67" depart="67.00">
        <route edges="-15 -3 11 698 1027 1201"/>
    </vehicle>
    <vehicle id="68" depart="68.00">
        <route edges="-1429 1429 1523 1882 2200 -330 330"/>
    </vehicle>
    <vehicle id="69" depart="69.00">
        <route edges="2872 -2872 -533 -365 -344 -125 -19"/>
    </vehicle>
    <vehicle id="70" depart="70.00">
        <route edges="-608 612 1005 -1029 -728 -11 3 15 119 330 -2200 -1882 -1523 1501"/>
    </vehicle>
    <vehicle id="71" depart="71.00">
        <route edges="-3093 -2453 2449 -2194 -1950 -1942 -1883 1891 2128 -2168 -2166 -3439 3438 3497 4050"/>
    </vehicle>
    <vehicle id="72" depart="72.00">
        <route edges="-4473 -3742 -2895 -2423 -2158 -867 -618 -579 -383 -128 -25"/>
    </vehicle>
    <vehicle id="73" depart="73.00">
        <route edges="1005 -1029 -728 -11 3 15 119 330 -2200 -1882 -1774 1775 1935 2173 2453 3119"/>
    </vehicle>
    <vehicle id="74" depart="74.00">
        <route edges="-2412 -535 -365 379 -492 -361"/>
    </vehicle>
    <vehicle id="75" depart="75.00">
        <route edges="880 -1767 1930 2168 -2128 2120 2209"/>
    </vehicle>
    <vehicle id="76" depart="76.00">
        <route edges="-4539 -4257 -3611 -1464 -1391 1391"/>
    </vehicle>
    <vehicle id="77" depart="77.00">
        <route edges="-1798 -1523 -1429 1427 1441 2278 -2447 -1493 1483 -3439 -2756"/>
    </vehicle>
    <vehicle id="78" depart="78.00">
        <route edges="-365 -344 -125 123 338 523 -1415 -1357 1494 -1533 -1524 1526 1891"/>
    </vehicle>
    <vehicle id="79" depart="79.00">
        <route edges="-2714 -846 -642 650 2724 3920 -3920 -2724"/>
    </vehicle>
    <vehicle id="80" depart="80.00">
        <route edges="-1431 -1427 1429 1501 1773 1941 2185"/>
    </vehicle>
    <vehicle id="81" depart="81.00">
        <route edges="-2714 -846 -642 -592 -332 -119 117 325 588 -517 -338 336 361 496"/>
    </vehicle>
    <vehicle id="82" depart="82.00">
        <route edges="3737 -2893 -2421 -2149 -614 -579 -383 -128 -25 17 38 319 639 876 -1535 -1533 -1441"/>
    </vehicle>
    <vehicle id="83" depart="83.00">
        <route edges="-2766 -2289 -684 -597 -505 -338 -123 -19 25 128 383 579 618 867 2158 2425"/>
    </vehicle>
    <vehicle id="84" depart="84.00">
        <route edges="-2453 2449 -2194 -1950 -1942 -1883 1891 2128 -2168 -1930"/>
    </vehicle>
    <vehicle id="85" depart="85.00">
        <route edges="589 -1415 -1357 1494 -1447 -1427 1429 1499 1771"/>
    </vehicle>
    <vehicle id="86" depart="86.00">
        <route edges="-597 597 684 2289 2766 3497"/>
    </vehicle>
    <vehicle id="87" depart="87.00">
        <route edges="3162 -3772 -1201 1199 -1343 1342 1345 1404 3737 -2893 -2421"/>
    </vehicle>
    <vehicle id="88" depart="88.00">
        <route edges="-1532 1524 1533 1535 -876 -639 -319 -117 -15 -3 11 696 -696"/>
    </vehicle>
    <vehicle id="89" depart="89.00">
        <route edges="-4473 -3742 -2895 -2423 -2158 1919 -2149 -608 612 1005 -1029 -728 698 1027"/>
    </vehicle>
    <vehicle id="90" depart="90.00">
        <route edges="2421 -2421 -2149 -614 -579 -383 -128 -25 17 38 -117 119 330 -2200 -1882 -1774 1775 1935 2173 2449"/>
    </vehicle>
    <vehicle id="91" depart="91.00">
        <route edges="837 -837 -732 -625 639 876 -1535"/>
    </vehicle>
    <vehicle id="92" depart="92.00">
        <route edges="-3920 -2724 848 3252 -3773"/>
    </vehicle>
    <vehicle id="93" depart="93.00">
        <route edges="3739 -3737 -1404 -1345 -1011 1005 -1029 -728 -11 3 -3"/>
    </vehicle>
    <vehicle id="94" depart="94.00">
        <route edges="-2210 2210 -1944 -1797 -1517 1523 1882 2200 837 -674 650 848 -848"/>
    </vehicle>
    <vehicle id="95" depart="95.00">
        <route edges="-4469 -3742 -2895 -2423 -2158 -867 -618 -579 -383 -128 -25 17 116 -326"/>
    </vehicle>
    <vehicle id="96" depart="96.00">
        <route edges="-2895 -2423 -2158 -867 -618 -579 579"/>
    </vehicle>
    <vehicle id="97" depart="97.00">
        <route edges="-496 -361 -336 338 523 -1415 -1357 -1767 1930 2168 -2128 2112 3145 3897"/>
    </vehicle>
    <vehicle id="98" depart="98.00">
        <route edges="1093 -1093 -1029 -728 -11 3 15 117 319 639 876 -1535 -1447 -1373"/>
    </vehicle>
    <vehicle id="99" depart="99.00">
        <route edges="9 17 38 -117 119 330 -2200 -2186 2185 2482 -3779 -3091 3800"/>
    </vehicle>
    <vehicle id="100" depart="100.00">
        <route edges="684 -684 -597 -505 -338 -123 125 344 -349 585"/>
    </vehicle>
    <vehicle id="101" depart="101.00">
        <route edges="3607 -3607 -1464 -1388 -533 -365 -344 -125 121 326 -313 -117 119 330 -2200 -2186 2185 2482 -3121 -2183"/>
    </vehicle>
    <vehicle id="102" depart="102.00">
        <route edges="-621 639 880 -1767 1930 2168 -2202 2206 2502 -2502"/>
    </vehicle>
    <vehicle id="103" depart="103.00">
        <route edges="-3907 -3166 3162 -3772 -1201 1199 -1343 1342 1345 1404 3737 -3737 -1404"/>
    </vehicle>
    <vehicle id="104" depart="104.00">
        <route edges="-3814 -3800 3091 3779 -2482 -2185 2186 2200 837 -674 642 846"/>
    </vehicle>
    <vehicle id="105" depart="105.00">
        <route edges="-3093 -2453 -2173 -1935 -1775 1774 1882 2200 -330 -119 117 -38 -17 25 210 349"/>
    </vehicle>
    <vehicle id="106" depart="106.00">
        <route edges="-535 -365 -344 -125 121 326 -313 -117 119 332 592 642 -642"/>
    </vehicle>
    <vehicle id="107" depart="107.00">
        <route edges="639 880"/>
    </vehicle>
    <vehicle id="108" depart="108.00">
        <route edges="116 -326 -121 125 344 365 533 2872 2873 2979 -3764 -2969 2969"/>
    </vehicle>
    <vehicle id="109" depart="109.00">
        <route edges="-2128 2128 -2168 -2166 -3439"/>
    </vehicle>
    <vehicle id="110" depart="110.00">
        <route edges="684 2289 2756 3439 2166 2168 -2128 -1891 1883 -1783 1797"/>
    </vehicle>
    <vehicle id="111" depart="111.00">
        <route edges="1011 -1342 1343 -1199 1201 3772 -3162 -848 -650 642 846 2714 3159"/>
    </vehicle>
    <vehicle id="112" depart="112.00">
        <route edges="-1391 -569 -365 -344 -125 121 326 -313 -117 119 330 -2200 -1882 1882"/>
    </vehicle>
    <vehicle id="113" depart="113.00">
        <route edges="-684 684 2289 2756 3439 2166 2168 -2202 2206 2502 3137 3849"/>
    </vehicle>
    <vehicle id="114" depart="114.00">
        <route edges="-2149 -614 -579 -383 -128 -25 17 38 -117 119 332 592 674"/>
    </vehicle>
    <vehicle id="115" depart="115.00">
        <route edges="-1493 1493 2447 -2278"/>
    </vehicle>
    <vehicle id="116" depart="116.00">
        <route edges="1391 -1388 -533 -365 -344 -125 123 338 523 -1415 -1357 1494 -1533 -1524 1526 1883 1942 1950 2194 -2449 2453"/>
    </vehicle>
    <vehicle id="117" depart="117.00">
        <route edges="-2756 2766 3497 4050 -589 -325 -117 119 330 -2200 -1882"/>
    </vehicle>
    <vehicle id="118" depart="118.00">
        <route edges="3801 -3799 3779 -2482 -2185 2186 2200 -330 -119 117 -38 -17 25 128 383 579 618 2439 2979 -2979"/>
    </vehicle>
    <vehicle id="119" depart="119.00">
        <route edges="1391 -1388 2872 2873 -2439 867 2158"/>
    </vehicle>
    <vehicle id="120" depart="120.00">
        <route edges="-4258 -3611 -1464 -1388 -533 -365 -344 -125 121 326 -313 -117 119 330 -2200 -1882 1882"/>
    </vehicle>
    <vehicle id="121" depart="121.00">
        <route edges="-840 -642 -592 -332 -119 117 -38 -17 25 210 585 -601 601"/>
    </vehicle>
    <vehicle id="122" depart="122.00">
        <route edges="-2423 2425 2963"/>
    </vehicle>
    <vehicle id="123" depart="123.00">
        <route edges="-2872 -533 -365 -344 -125 123 338 517 -588"/>
    </vehicle>
    <vehicle id="124" depart="124.00">
        <route edges="1935 2183 3121 -2482 -2185 2186 2200 -330 -119 117 313 -326 -121 125 344 -344"/>
    </vehicle>
    <vehicle id="125" depart="125.00">
        <route edges="-3439 3438 3497 4050 -589 -325 -117 119 332 592 650 848 3166"/>
    </vehicle>
    <vehicle id="126" depart="126.00">
        <route edges="-1441 -1373 -1323 -882"/>
    </vehicle>
    <vehicle id="127" depart="127.00">
        <route edges="9 17 38 319 639 880"/>
    </vehicle>
    <vehicle id="128" depart="128.00">
        <route edges="-1447 1447 1535 -876 -639 -319 -38 -17 25 -25"/>
    </vehicle>
    <vehicle id="129" depart="129.00">
        <route edges="-3093 -2453 2449 -2194 -1950 -1942 -1883 -1526 1524 1533 -1494 1357 1415 -523 505 597"/>
    </vehicle>
    <vehicle id="130" depart="130.00">
        <route edges="379 -379 365 533 1388 1464 3611 4258"/>
    </vehicle>
    <vehicle id="131" depart="131.00">
        <route edges="-3799 -3091 -2171 2173 2449 -2194 -1950 -1942 -1883 1891 2128 -2168 -2166"/>
    </vehicle>
    <vehicle id="132" depart="132.00">
        <route edges="3438 3497 4050 -523 -338 -123 125 344 365 533 2872 2873"/>
    </vehicle>
    <vehicle id="133" depart="133.00">
        <route edges="1464 -1464 -1388 -533 -365 -344 -125 121 326 -313 -117 119 332 592 650 848"/>
    </vehicle>
    <vehicle id="134" depart="134.00">
        <route edges="1797 -1797 -1517 -1429 -1363 -1323 -1033"/>
    </vehicle>
    <vehicle id="135" depart="135.00">
        <route edges="326 -326 -121 125 344 -344"/>
    </vehicle>
    <vehicle id="136" depart="136.00">
        <route edges="1891 -1891 -1526 1524 1533 1535 -876 -639 -319 -38 -17 25 128 383 577 612"/>
    </vehicle>
    <vehicle id="137" depart="137.00">
        <route edges="-1930 2447 -2278 -1524 1526 1883 1942 -1797"/>
    </vehicle>
    <vehicle id="138" depart="138.00">
        <route edges="-1769 -1499 1523"/>
    </vehicle>
    <vehicle id="139" depart="139.00">
        <route edges="-3122 -2183 2173 2449 -2194 -1950 1950"/>
    </vehicle>
    <vehicle id="140" depart="140.00">
        <route edges="2202 -2128 -1891 1883 1942 1950 2194 -2449 2453 -2453"/>
    </vehicle>
    <vehicle id="141" depart="141.00">
        <route edges="1532 2607 -2447 1930 2168 -2202 2206 2502 3137 -3137"/>
    </vehicle>
    <vehicle id="142" depart="142.00">
        <route edges="-625 -319 325 588 -517 -338 336 361 496"/>
    </vehicle>
    <vehicle id="143" depart="143.00">
        <route edges="356 -348 -138 -25 17 38 319 639 876 -1535 -1533 -1524"/>
    </vehicle>
    <vehicle id="144" depart="144.00">
        <route edges="-4473 -3742 -2895 2961 -3740 3739 -3737 -1404 -1345 -1342 1343 -1199 1201 3773 -3252"/>
    </vehicle>
    <vehicle id="145" depart="145.00">
        <route edges="-1011 1005 -1029 -728 -11 9 19 123 338"/>
    </vehicle>
    <vehicle id="146" depart="146.00">
        <route edges="1535 -1535 -1533 -1524 1526 1891 2110 2206 2502 3131 -3131"/>
    </vehicle>
    <vehicle id="147" depart="147.00">
        <route edges="2453 -2453 -2173 -1935 -1775 -1501 1517"/>
    </vehicle>
    <vehicle id="148" depart="148.00">
        <route edges="-4494 4474 -2963 2969 3764 -2979 -2873 -2872 -533 -365 -344 -125 123 338 523 1057 2300 -2300 -1057"/>
    </vehicle>
    <vehicle id="149" depart="149.00">
        <route edges="-1464 1464 3611 4257 -3769 -3764 -2969 2963 -4474 -3744 3742 4469"/>
    </vehicle>
    <vehicle id="150" depart="150.00">
        <route edges="4258 -3603 -1464 -1388 -533 -365 -344 -125 121 326 -313 -117 119 330 -2200 -1882 -1523 1499"/>
    </vehicle>
    <vehicle id="151" depart="151.00">
        <route edges="3438 3497 4050 -589 -325 -117 119 330 -2200 -1882 1798"/>
    </vehicle>
    <vehicle id="152" depart="152.00">
        <route edges="-2110 2128 -2168 -1930 1767 1357 1415 -523 -338 -123 -19"/>
    </vehicle>
    <vehicle id="153" depart="153.00">
        <route edges="-338 -123 125 344 365 533 1388 1464 3611 4257 4539"/>
    </vehicle>
    <vehicle id="154" depart="154.00">
        <route edges="3121 -3121 -2183 2173 2449 -2194 -1950 -1942 -1883 1891 2112 3145 3897"/>
    </vehicle>
    <vehicle id="155" depart="155.00">
        <route edges="4255 -3720 -2876 -569 -365 -344 -125 123 338 523 -1415 -1357 -1767 1930 2168 -2202 2206 2494 -2494"/>
    </vehicle>
    <vehicle id="156" depart="156.00">
        <route edges="-2895 -2423 -2158 -867 -618 -579 -383 -128 -25 17 38 319 639 880 -1767"/>
    </vehicle>
    <vehicle id="157" depart="157.00">
        <route edges="2961 -2961 2895 3742 4469"/>
    </vehicle>
    <vehicle id="158" depart="158.00">
        <route edges="-4031 -3437 3435 3438 3497 4050 -523 -338 -123 -19 25 128 383 579 618 867 2158"/>
    </vehicle>
    <vehicle id="159" depart="159.00">
        <route edges="-2128 2128 -2168 -1930 1767 1357 1415 -589 589"/>
    </vehicle>
    <vehicle id="160" depart="160.00">
        <route edges="3740 -2961 -2423 -2158 -867 -618 -579 -383 -128 -25 17 38 319 623 730"/>
    </vehicle>
    <vehicle id="161" depart="161.00">
        <route edges="319 -319 -38 -17 25 128 383 579 618 867 2158 2423 2895 3742 4467"/>
    </vehicle>
    <vehicle id="162" depart="162.00">
        <route edges="-1201 -1027 -698 -11 3 15 117 319 639 880 -1767 1930 2168 -2202 2206 2502 3131"/>
    </vehicle>
    <vehicle id="163" depart="163.00">
        <route edges="-361 -336 338 517 -588 -325 -117 119 332 592"/>
    </vehicle>
    <vehicle id="164" depart="164.00">
        <route edges="3137 -3137 -2502 -2206 -2110 -1891 1883 -1783 -1517 1523 1882 2200 837 -674 650 2724 3920"/>
    </vehicle>
    <vehicle id="165" depart="165.00">
        <route edges="319 639 876 -1535 -1533 -1524 1526 1891 2112 3145 -3145"/>
    </vehicle>
    <vehicle id="166" depart="166.00">
        <route edges="3 15 119 330 -2200 -2186 -1941 -1773"/>
    </vehicle>
    <vehicle id="167" depart="167.00">
        <route edges="3764 -2979 -2873 -2872 -533 -365 -344 -125 123 338 523 -1415 -1357 -1767 1930 2168 -2128 2112 3145 3885"/>
    </vehicle>
    <vehicle id="168" depart="168.00">
        <route edges="-2494 -2206 2202 -2168 -1930 1767 -880 -639 -319 -38 -17 25 128 383 579 618 867 2158 2423 2961 3761"/>
    </vehicle>
    <vehicle id="169" depart="169.00">
        <route edges="-577 -383 -128 -25 19 123 338 523 -4050 -3497"/>
    </vehicle>
    <vehicle id="170" depart="170.00">
        <route edges="3121 -2482 -2185 2186 2200 -330 -119 117 -38 -17 25 210 585 -601 2412 -2872"/>
    </vehicle>
    <vehicle id="171" depart="171.00">
        <route edges="-1201 1199 -1343 1342 1345 1404 3737 -3739 3740 -2961 -2423"/>
    </vehicle>
    <vehicle id="172" depart="172.00">
        <route edges="-3603 -1464 -1388 -533 -365 -344 -125 121 326 -313 -117 119 332 592 650 2724 3920"/>
    </vehicle>
    <vehicle id="173" depart="173.00">
        <route edges="679 -679 -7 3 15 119 330 -330"/>
    </vehicle>
    <vehicle id="174" depart="174.00">
        <route edges="1767 -880 -639 625 732 837 -674 -592"/>
    </vehicle>
    <vehicle id="175" depart="175.00">
        <route edges="734 1033 1323 1373 1447"/>
    </vehicle>
    <vehicle id="176" depart="176.00">
        <route edges="597 684 2289 2756 3439 2166 2168 -2128 -1891 1883 -1783"/>
    </vehicle>
    <vehicle id="177" depart="177.00">
        <route edges="696 -679 -7 3 15 117 319 639 876 -1535 -1533 -1524 1526 1891 2112 -2201"/>
    </vehicle>
    <vehicle id="178" depart="178.00">
        <route edges="650 -650 674 -837 -2200 -1882 -1523 1517 1783 -1883 1891 2112 3145 -3145"/>
    </vehicle>
    <vehicle id="179" depart="179.00">
        <route edges="-1771 -1499 1523 1882 2200 -330 -119 -15 -3 11 698 -698"/>
    </vehicle>
    <vehicle id="180" depart="180.00">
        <route edges="2412 2873 2979 3769 -4257 -3611"/>
    </vehicle>
    <vehicle id="181" depart="181.00">
        <route edges="1431 -1431 -1373 1363"/>
    </vehicle>
    <vehicle id="182" depart="182.00">
        <route edges="-3835 -2494 -2206 -2110 -1891 1883 -1783 -1517 1501 1775"/>
    </vehicle>
    <vehicle id="183" depart="183.00">
        <route edges="-2963 -2425 -2158 1919 2421 2893"/>
    </vehicle>
    <vehicle id="184" depart="184.00">
        <route edges="-1005 -612 -577 -383 381 585"/>
    </vehicle>
    <vehicle id="185" depart="185.00">
        <route edges="-9 9 25 128 383 579 618 2439 2979"/>
    </vehicle>
    <vehicle id="186" depart="186.00">
        <route edges="2453 -2453 -2173 -1935 -1775 1774 1882 2200 -330 -119 117 -38 -17 25 128 383 579 618 2439"/>
    </vehicle>
    <vehicle id="187" depart="187.00">
        <route edges="-3779 -3091 -2171 -1935 -1775 -1501 -1429 1427 1441 -1441"/>
    </vehicle>
    <vehicle id="188" depart="188.00">
        <route edges="1895 -1895 -1526 1524 1533 -1494 1357 1415 -523 -338 -123 125 344 365 533 2872 2873 2979 -3764 -2969 2963 -4474 -3744"/>
    </vehicle>
    <vehicle id="189" depart="189.00">
        <route edges="-3438 3439 2166 2168 -2202 2206 2494 3835"/>
    </vehicle>
    <vehicle id="190" depart="190.00">
        <route edges="2206 -2206 2202 -2168 -1930 1767 -880 -639 -319 -117 -15 -3 7 356 -348"/>
    </vehicle>
    <vehicle id="191" depart="191.00">
        <route edges="-338 -123 125 344 -349 585 -613"/>
    </vehicle>
    <vehicle id="192" depart="192.00">
        <route edges="-3920 -2724 -650 -592 -332 -119 117 325 589 -4050 -3497 -3438"/>
    </vehicle>
    <vehicle id="193" depart="193.00">
        <route edges="-1895 -1526 1524 1533 1535 -876 -639 -319 313 -326 -64"/>
    </vehicle>
    <vehicle id="194" depart="194.00">
        <route edges="597 684 2289 2756 3439 2166 2168 -2128 -1891 1883 1942 1950 2194 -2449 2477"/>
    </vehicle>
    <vehicle id="195" depart="195.00">
        <route edges="4257 -4257 -3611 -1464 -1388 -533 -365 -344 -125 123 338 523 -1415 -1357 -1767 1930 2168 -2128 2128"/>
    </vehicle>
    <vehicle id="196" depart="196.00">
        <route edges="-332 -119 -15 15"/>
    </vehicle>
    <vehicle id="197" depart="197.00">
        <route edges="-1005 -612 -577 -383 381 349 379 -492 -361 -336"/>
    </vehicle>
    <vehicle id="198" depart="198.00">
        <route edges="-4495 -2903 -2423 -2158 -867 -618 -579 -383 -128 -25 17 38 -117 119 330 -2200 -1882 -1523 1517 1797"/>
    </vehicle>
    <vehicle id="199" depart="199.00">
        <route edges="1797 -1797 -1517 1523 1882 2200 -330 -119 -15 -3 11 728 1029 -1005 1011"/>
    </vehicle>
    <vehicle id="200" depart="200.00">
        <route edges="-492 -361 -336 338 523 -1415 -1357 -1767 1930 2168 -2202 2206 2502 -2502"/>
    </vehicle>
    <vehicle id="201" depart="201.00">
        <route edges="-601 601 -585 -210 -25 -9 11 698 4681"/>
    </vehicle>
    <vehicle id="202" depart="202.00">
        <route edges="3121 -2482 -2185 2186 -2186"/>
    </vehicle>
    <vehicle id="203" depart="203.00">
        <route edges="-15 13 64 -121 125 344 365 533 1388"/>
    </vehicle>
    <vehicle id="204" depart="204.00">
        <route edges="1532 2607 -2447 1767 1357 1415 -523 -338 -123 125 344 365 533 1388 1464 3611 4257 -3769"/>
    </vehicle>
    <vehicle id="205" depart="205.00">
        <route edges="330 837 -674 650 848 3166"/>
    </vehicle>
    <vehicle id="206" depart="206.00">
        <route edges="1935 -1935 -1775 -1501 -1429 1427 1441 2278 -2447 -1493 1483 -3439 -2756"/>
    </vehicle>
    <vehicle id="207" depart="207.00">
        <route edges="-2300 -1057 -589 -325 -117 119 332 592 650 848 3162 -3772 -1201"/>
    </vehicle>
    <vehicle id="208" depart="208.00">
        <route edges="-2881 -2421 -2149 -608 612 1005 -1029 -728 -11 11"/>
    </vehicle>
    <vehicle id="209" depart="209.00">
        <route edges="3607 -3607 -1464 -1388 -533 -365 -344 -125 123 338 523 -1415 -1357 1494 -1447"/>
    </vehicle>
    <vehicle id="210" depart="210.00">
        <route edges="-4256 -3607 -1464 -1388 -533 -365 -344 -125 121 326 -313 -117 119 330 -2200 -1882 -1774 1775 1935 2183"/>
    </vehicle>
    <vehicle id="211" depart="211.00">
        <route edges="-2289 2289 2756"/>
    </vehicle>
    <vehicle id="212" depart="212.00">
        <route edges="-642 -592 -332 -119 117 -38 -17 25 128 383 579 618 867 2158 2423 2895 3744 4474 -2963"/>
    </vehicle>
    <vehicle id="213" depart="213.00">
        <route edges="1798 1941 2186 2200 837 -674 650 848 3162 -3772 -1201 -1027"/>
    </vehicle>
    <vehicle id="214" depart="214.00">
        <route edges="25 -25 19 123 338"/>
    </vehicle>